
---------- Begin Simulation Statistics ----------
sim_seconds                                  0.360141                       # Number of seconds simulated
sim_ticks                                360141037794                       # Number of ticks simulated
final_tick                               360141037794                       # Number of ticks from beginning of simulation (restored from checkpoints and never reset)
sim_freq                                 1000000000000                       # Frequency of simulated ticks
host_inst_rate                                 213196                       # Simulator instruction rate (inst/s)
host_op_rate                                   325185                       # Simulator op (including micro ops) rate (op/s)
host_tick_rate                               63577719                       # Simulator tick rate (ticks/s)
host_mem_usage                                8767308                       # Number of bytes of host memory used
host_seconds                                  5664.58                       # Real time elapsed on the host
sim_insts                                  1207665125                       # Number of instructions simulated
sim_ops                                    1842037316                       # Number of ops (including micro ops) simulated
system.voltage_domain.voltage                       1                       # Voltage in Volts
system.clk_domain.clock                          1000                       # Clock period in ticks
system.mem_ctrls.pwrStateResidencyTicks::UNDEFINED 360141037794                       # Cumulative time (in ticks) in various power states
system.mem_ctrls.bytes_read::cpu00.inst         86464                       # Number of bytes read from this memory
system.mem_ctrls.bytes_read::cpu00.data       5275456                       # Number of bytes read from this memory
system.mem_ctrls.bytes_read::total            5361920                       # Number of bytes read from this memory
system.mem_ctrls.bytes_inst_read::cpu00.inst        86464                       # Number of instructions bytes read from this memory
system.mem_ctrls.bytes_inst_read::total         86464                       # Number of instructions bytes read from this memory
system.mem_ctrls.num_reads::cpu00.inst           1351                       # Number of read requests responded to by this memory
system.mem_ctrls.num_reads::cpu00.data          82429                       # Number of read requests responded to by this memory
system.mem_ctrls.num_reads::total               83780                       # Number of read requests responded to by this memory
system.mem_ctrls.bw_read::cpu00.inst           240084                       # Total read bandwidth from this memory (bytes/s)
system.mem_ctrls.bw_read::cpu00.data         14648306                       # Total read bandwidth from this memory (bytes/s)
system.mem_ctrls.bw_read::total              14888389                       # Total read bandwidth from this memory (bytes/s)
system.mem_ctrls.bw_inst_read::cpu00.inst       240084                       # Instruction read bandwidth from this memory (bytes/s)
system.mem_ctrls.bw_inst_read::total           240084                       # Instruction read bandwidth from this memory (bytes/s)
system.mem_ctrls.bw_total::cpu00.inst          240084                       # Total bandwidth to/from this memory (bytes/s)
system.mem_ctrls.bw_total::cpu00.data        14648306                       # Total bandwidth to/from this memory (bytes/s)
system.mem_ctrls.bw_total::total             14888389                       # Total bandwidth to/from this memory (bytes/s)
system.mem_ctrls.readReqs                       83780                       # Number of read requests accepted
system.mem_ctrls.writeReqs                          0                       # Number of write requests accepted
system.mem_ctrls.readBursts                     83780                       # Number of DRAM read bursts, including those serviced by the write queue
system.mem_ctrls.writeBursts                        0                       # Number of DRAM write bursts, including those merged in the write queue
system.mem_ctrls.bytesReadDRAM                5361920                       # Total number of bytes read from DRAM
system.mem_ctrls.bytesReadWrQ                       0                       # Total number of bytes read from write queue
system.mem_ctrls.bytesWritten                       0                       # Total number of bytes written to DRAM
system.mem_ctrls.bytesReadSys                 5361920                       # Total read bytes from the system interface side
system.mem_ctrls.bytesWrittenSys                    0                       # Total written bytes from the system interface side
system.mem_ctrls.servicedByWrQ                      0                       # Number of DRAM read bursts serviced by the write queue
system.mem_ctrls.mergedWrBursts                     0                       # Number of DRAM write bursts merged with an existing one
system.mem_ctrls.neitherReadNorWriteReqs            0                       # Number of requests that are neither read nor write
system.mem_ctrls.perBankRdBursts::0              5231                       # Per bank write bursts
system.mem_ctrls.perBankRdBursts::1              5242                       # Per bank write bursts
system.mem_ctrls.perBankRdBursts::2              5290                       # Per bank write bursts
system.mem_ctrls.perBankRdBursts::3              5246                       # Per bank write bursts
system.mem_ctrls.perBankRdBursts::4              5264                       # Per bank write bursts
system.mem_ctrls.perBankRdBursts::5              5179                       # Per bank write bursts
system.mem_ctrls.perBankRdBursts::6              5230                       # Per bank write bursts
system.mem_ctrls.perBankRdBursts::7              5228                       # Per bank write bursts
system.mem_ctrls.perBankRdBursts::8              5147                       # Per bank write bursts
system.mem_ctrls.perBankRdBursts::9              5287                       # Per bank write bursts
system.mem_ctrls.perBankRdBursts::10             5204                       # Per bank write bursts
system.mem_ctrls.perBankRdBursts::11             5286                       # Per bank write bursts
system.mem_ctrls.perBankRdBursts::12             5322                       # Per bank write bursts
system.mem_ctrls.perBankRdBursts::13             5313                       # Per bank write bursts
system.mem_ctrls.perBankRdBursts::14             5165                       # Per bank write bursts
system.mem_ctrls.perBankRdBursts::15             5146                       # Per bank write bursts
system.mem_ctrls.perBankWrBursts::0                 0                       # Per bank write bursts
system.mem_ctrls.perBankWrBursts::1                 0                       # Per bank write bursts
system.mem_ctrls.perBankWrBursts::2                 0                       # Per bank write bursts
system.mem_ctrls.perBankWrBursts::3                 0                       # Per bank write bursts
system.mem_ctrls.perBankWrBursts::4                 0                       # Per bank write bursts
system.mem_ctrls.perBankWrBursts::5                 0                       # Per bank write bursts
system.mem_ctrls.perBankWrBursts::6                 0                       # Per bank write bursts
system.mem_ctrls.perBankWrBursts::7                 0                       # Per bank write bursts
system.mem_ctrls.perBankWrBursts::8                 0                       # Per bank write bursts
system.mem_ctrls.perBankWrBursts::9                 0                       # Per bank write bursts
system.mem_ctrls.perBankWrBursts::10                0                       # Per bank write bursts
system.mem_ctrls.perBankWrBursts::11                0                       # Per bank write bursts
system.mem_ctrls.perBankWrBursts::12                0                       # Per bank write bursts
system.mem_ctrls.perBankWrBursts::13                0                       # Per bank write bursts
system.mem_ctrls.perBankWrBursts::14                0                       # Per bank write bursts
system.mem_ctrls.perBankWrBursts::15                0                       # Per bank write bursts
system.mem_ctrls.numRdRetry                         0                       # Number of times read queue was full causing retry
system.mem_ctrls.numWrRetry                         0                       # Number of times write queue was full causing retry
system.mem_ctrls.totGap                  360140891274                       # Total gap between requests
system.mem_ctrls.readPktSize::0                     0                       # Read request sizes (log2)
system.mem_ctrls.readPktSize::1                     0                       # Read request sizes (log2)
system.mem_ctrls.readPktSize::2                     0                       # Read request sizes (log2)
system.mem_ctrls.readPktSize::3                     0                       # Read request sizes (log2)
system.mem_ctrls.readPktSize::4                     0                       # Read request sizes (log2)
system.mem_ctrls.readPktSize::5                     0                       # Read request sizes (log2)
system.mem_ctrls.readPktSize::6                 83780                       # Read request sizes (log2)
system.mem_ctrls.writePktSize::0                    0                       # Write request sizes (log2)
system.mem_ctrls.writePktSize::1                    0                       # Write request sizes (log2)
system.mem_ctrls.writePktSize::2                    0                       # Write request sizes (log2)
system.mem_ctrls.writePktSize::3                    0                       # Write request sizes (log2)
system.mem_ctrls.writePktSize::4                    0                       # Write request sizes (log2)
system.mem_ctrls.writePktSize::5                    0                       # Write request sizes (log2)
system.mem_ctrls.writePktSize::6                    0                       # Write request sizes (log2)
system.mem_ctrls.rdQLenPdf::0                   83147                       # What read queue length does an incoming req see
system.mem_ctrls.rdQLenPdf::1                     457                       # What read queue length does an incoming req see
system.mem_ctrls.rdQLenPdf::2                     134                       # What read queue length does an incoming req see
system.mem_ctrls.rdQLenPdf::3                      32                       # What read queue length does an incoming req see
system.mem_ctrls.rdQLenPdf::4                       8                       # What read queue length does an incoming req see
system.mem_ctrls.rdQLenPdf::5                       2                       # What read queue length does an incoming req see
system.mem_ctrls.rdQLenPdf::6                       0                       # What read queue length does an incoming req see
system.mem_ctrls.rdQLenPdf::7                       0                       # What read queue length does an incoming req see
system.mem_ctrls.rdQLenPdf::8                       0                       # What read queue length does an incoming req see
system.mem_ctrls.rdQLenPdf::9                       0                       # What read queue length does an incoming req see
system.mem_ctrls.rdQLenPdf::10                      0                       # What read queue length does an incoming req see
system.mem_ctrls.rdQLenPdf::11                      0                       # What read queue length does an incoming req see
system.mem_ctrls.rdQLenPdf::12                      0                       # What read queue length does an incoming req see
system.mem_ctrls.rdQLenPdf::13                      0                       # What read queue length does an incoming req see
system.mem_ctrls.rdQLenPdf::14                      0                       # What read queue length does an incoming req see
system.mem_ctrls.rdQLenPdf::15                      0                       # What read queue length does an incoming req see
system.mem_ctrls.rdQLenPdf::16                      0                       # What read queue length does an incoming req see
system.mem_ctrls.rdQLenPdf::17                      0                       # What read queue length does an incoming req see
system.mem_ctrls.rdQLenPdf::18                      0                       # What read queue length does an incoming req see
system.mem_ctrls.rdQLenPdf::19                      0                       # What read queue length does an incoming req see
system.mem_ctrls.rdQLenPdf::20                      0                       # What read queue length does an incoming req see
system.mem_ctrls.rdQLenPdf::21                      0                       # What read queue length does an incoming req see
system.mem_ctrls.rdQLenPdf::22                      0                       # What read queue length does an incoming req see
system.mem_ctrls.rdQLenPdf::23                      0                       # What read queue length does an incoming req see
system.mem_ctrls.rdQLenPdf::24                      0                       # What read queue length does an incoming req see
system.mem_ctrls.rdQLenPdf::25                      0                       # What read queue length does an incoming req see
system.mem_ctrls.rdQLenPdf::26                      0                       # What read queue length does an incoming req see
system.mem_ctrls.rdQLenPdf::27                      0                       # What read queue length does an incoming req see
system.mem_ctrls.rdQLenPdf::28                      0                       # What read queue length does an incoming req see
system.mem_ctrls.rdQLenPdf::29                      0                       # What read queue length does an incoming req see
system.mem_ctrls.rdQLenPdf::30                      0                       # What read queue length does an incoming req see
system.mem_ctrls.rdQLenPdf::31                      0                       # What read queue length does an incoming req see
system.mem_ctrls.wrQLenPdf::0                       0                       # What write queue length does an incoming req see
system.mem_ctrls.wrQLenPdf::1                       0                       # What write queue length does an incoming req see
system.mem_ctrls.wrQLenPdf::2                       0                       # What write queue length does an incoming req see
system.mem_ctrls.wrQLenPdf::3                       0                       # What write queue length does an incoming req see
system.mem_ctrls.wrQLenPdf::4                       0                       # What write queue length does an incoming req see
system.mem_ctrls.wrQLenPdf::5                       0                       # What write queue length does an incoming req see
system.mem_ctrls.wrQLenPdf::6                       0                       # What write queue length does an incoming req see
system.mem_ctrls.wrQLenPdf::7                       0                       # What write queue length does an incoming req see
system.mem_ctrls.wrQLenPdf::8                       0                       # What write queue length does an incoming req see
system.mem_ctrls.wrQLenPdf::9                       0                       # What write queue length does an incoming req see
system.mem_ctrls.wrQLenPdf::10                      0                       # What write queue length does an incoming req see
system.mem_ctrls.wrQLenPdf::11                      0                       # What write queue length does an incoming req see
system.mem_ctrls.wrQLenPdf::12                      0                       # What write queue length does an incoming req see
system.mem_ctrls.wrQLenPdf::13                      0                       # What write queue length does an incoming req see
system.mem_ctrls.wrQLenPdf::14                      0                       # What write queue length does an incoming req see
system.mem_ctrls.wrQLenPdf::15                      0                       # What write queue length does an incoming req see
system.mem_ctrls.wrQLenPdf::16                      0                       # What write queue length does an incoming req see
system.mem_ctrls.wrQLenPdf::17                      0                       # What write queue length does an incoming req see
system.mem_ctrls.wrQLenPdf::18                      0                       # What write queue length does an incoming req see
system.mem_ctrls.wrQLenPdf::19                      0                       # What write queue length does an incoming req see
system.mem_ctrls.wrQLenPdf::20                      0                       # What write queue length does an incoming req see
system.mem_ctrls.wrQLenPdf::21                      0                       # What write queue length does an incoming req see
system.mem_ctrls.wrQLenPdf::22                      0                       # What write queue length does an incoming req see
system.mem_ctrls.wrQLenPdf::23                      0                       # What write queue length does an incoming req see
system.mem_ctrls.wrQLenPdf::24                      0                       # What write queue length does an incoming req see
system.mem_ctrls.wrQLenPdf::25                      0                       # What write queue length does an incoming req see
system.mem_ctrls.wrQLenPdf::26                      0                       # What write queue length does an incoming req see
system.mem_ctrls.wrQLenPdf::27                      0                       # What write queue length does an incoming req see
system.mem_ctrls.wrQLenPdf::28                      0                       # What write queue length does an incoming req see
system.mem_ctrls.wrQLenPdf::29                      0                       # What write queue length does an incoming req see
system.mem_ctrls.wrQLenPdf::30                      0                       # What write queue length does an incoming req see
system.mem_ctrls.wrQLenPdf::31                      0                       # What write queue length does an incoming req see
system.mem_ctrls.wrQLenPdf::32                      0                       # What write queue length does an incoming req see
system.mem_ctrls.wrQLenPdf::33                      0                       # What write queue length does an incoming req see
system.mem_ctrls.wrQLenPdf::34                      0                       # What write queue length does an incoming req see
system.mem_ctrls.wrQLenPdf::35                      0                       # What write queue length does an incoming req see
system.mem_ctrls.wrQLenPdf::36                      0                       # What write queue length does an incoming req see
system.mem_ctrls.wrQLenPdf::37                      0                       # What write queue length does an incoming req see
system.mem_ctrls.wrQLenPdf::38                      0                       # What write queue length does an incoming req see
system.mem_ctrls.wrQLenPdf::39                      0                       # What write queue length does an incoming req see
system.mem_ctrls.wrQLenPdf::40                      0                       # What write queue length does an incoming req see
system.mem_ctrls.wrQLenPdf::41                      0                       # What write queue length does an incoming req see
system.mem_ctrls.wrQLenPdf::42                      0                       # What write queue length does an incoming req see
system.mem_ctrls.wrQLenPdf::43                      0                       # What write queue length does an incoming req see
system.mem_ctrls.wrQLenPdf::44                      0                       # What write queue length does an incoming req see
system.mem_ctrls.wrQLenPdf::45                      0                       # What write queue length does an incoming req see
system.mem_ctrls.wrQLenPdf::46                      0                       # What write queue length does an incoming req see
system.mem_ctrls.wrQLenPdf::47                      0                       # What write queue length does an incoming req see
system.mem_ctrls.wrQLenPdf::48                      0                       # What write queue length does an incoming req see
system.mem_ctrls.wrQLenPdf::49                      0                       # What write queue length does an incoming req see
system.mem_ctrls.wrQLenPdf::50                      0                       # What write queue length does an incoming req see
system.mem_ctrls.wrQLenPdf::51                      0                       # What write queue length does an incoming req see
system.mem_ctrls.wrQLenPdf::52                      0                       # What write queue length does an incoming req see
system.mem_ctrls.wrQLenPdf::53                      0                       # What write queue length does an incoming req see
system.mem_ctrls.wrQLenPdf::54                      0                       # What write queue length does an incoming req see
system.mem_ctrls.wrQLenPdf::55                      0                       # What write queue length does an incoming req see
system.mem_ctrls.wrQLenPdf::56                      0                       # What write queue length does an incoming req see
system.mem_ctrls.wrQLenPdf::57                      0                       # What write queue length does an incoming req see
system.mem_ctrls.wrQLenPdf::58                      0                       # What write queue length does an incoming req see
system.mem_ctrls.wrQLenPdf::59                      0                       # What write queue length does an incoming req see
system.mem_ctrls.wrQLenPdf::60                      0                       # What write queue length does an incoming req see
system.mem_ctrls.wrQLenPdf::61                      0                       # What write queue length does an incoming req see
system.mem_ctrls.wrQLenPdf::62                      0                       # What write queue length does an incoming req see
system.mem_ctrls.wrQLenPdf::63                      0                       # What write queue length does an incoming req see
system.mem_ctrls.bytesPerActivate::samples         6265                       # Bytes accessed per row activation
system.mem_ctrls.bytesPerActivate::mean    855.628412                       # Bytes accessed per row activation
system.mem_ctrls.bytesPerActivate::gmean   726.423602                       # Bytes accessed per row activation
system.mem_ctrls.bytesPerActivate::stdev   304.450890                       # Bytes accessed per row activation
system.mem_ctrls.bytesPerActivate::0-127          338      5.40%      5.40% # Bytes accessed per row activation
system.mem_ctrls.bytesPerActivate::128-255          302      4.82%     10.22% # Bytes accessed per row activation
system.mem_ctrls.bytesPerActivate::256-383          158      2.52%     12.74% # Bytes accessed per row activation
system.mem_ctrls.bytesPerActivate::384-511          141      2.25%     14.99% # Bytes accessed per row activation
system.mem_ctrls.bytesPerActivate::512-639          116      1.85%     16.84% # Bytes accessed per row activation
system.mem_ctrls.bytesPerActivate::640-767          267      4.26%     21.10% # Bytes accessed per row activation
system.mem_ctrls.bytesPerActivate::768-895          529      8.44%     29.55% # Bytes accessed per row activation
system.mem_ctrls.bytesPerActivate::896-1023          137      2.19%     31.73% # Bytes accessed per row activation
system.mem_ctrls.bytesPerActivate::1024-1151         4277     68.27%    100.00% # Bytes accessed per row activation
system.mem_ctrls.bytesPerActivate::total         6265                       # Bytes accessed per row activation
system.mem_ctrls.totQLat                   1011138814                       # Total ticks spent queuing
system.mem_ctrls.totMemAccLat              2582013814                       # Total ticks spent from burst creation until serviced by the DRAM
system.mem_ctrls.totBusLat                  418900000                       # Total ticks spent in databus transfers
system.mem_ctrls.avgQLat                     12068.98                       # Average queueing delay per DRAM burst
system.mem_ctrls.avgBusLat                    5000.00                       # Average bus latency per DRAM burst
system.mem_ctrls.avgMemAccLat                30818.98                       # Average memory access latency per DRAM burst
system.mem_ctrls.avgRdBW                        14.89                       # Average DRAM read bandwidth in MiByte/s
system.mem_ctrls.avgWrBW                         0.00                       # Average achieved write bandwidth in MiByte/s
system.mem_ctrls.avgRdBWSys                     14.89                       # Average system read bandwidth in MiByte/s
system.mem_ctrls.avgWrBWSys                      0.00                       # Average system write bandwidth in MiByte/s
system.mem_ctrls.peakBW                      12800.00                       # Theoretical peak bandwidth in MiByte/s
system.mem_ctrls.busUtil                         0.12                       # Data bus utilization in percentage
system.mem_ctrls.busUtilRead                     0.12                       # Data bus utilization in percentage for reads
system.mem_ctrls.busUtilWrite                    0.00                       # Data bus utilization in percentage for writes
system.mem_ctrls.avgRdQLen                       1.03                       # Average read queue length when enqueuing
system.mem_ctrls.avgWrQLen                       0.00                       # Average write queue length when enqueuing
system.mem_ctrls.readRowHits                    77503                       # Number of row buffer hits during reads
system.mem_ctrls.writeRowHits                       0                       # Number of row buffer hits during writes
system.mem_ctrls.readRowHitRate                 92.51                       # Row buffer hit rate for reads
system.mem_ctrls.writeRowHitRate                  nan                       # Row buffer hit rate for writes
system.mem_ctrls.avgGap                    4298649.93                       # Average gap between requests
system.mem_ctrls.pageHitRate                    92.51                       # Row buffer hit rate, read and write combined
system.mem_ctrls_0.actEnergy                 22312500                       # Energy for activate commands per rank (pJ)
system.mem_ctrls_0.preEnergy                 11829015                       # Energy for precharge commands per rank (pJ)
system.mem_ctrls_0.readEnergy               299237400                       # Energy for read commands per rank (pJ)
system.mem_ctrls_0.writeEnergy                      0                       # Energy for write commands per rank (pJ)
system.mem_ctrls_0.refreshEnergy         643528080.000000                       # Energy for refresh commands per rank (pJ)
system.mem_ctrls_0.actBackEnergy            600452820                       # Energy for active background per rank (pJ)
system.mem_ctrls_0.preBackEnergy             32395200                       # Energy for precharge background per rank (pJ)
system.mem_ctrls_0.actPowerDownEnergy      2570130570                       # Energy for active power-down per rank (pJ)
system.mem_ctrls_0.prePowerDownEnergy       261197280                       # Energy for precharge power-down per rank (pJ)
system.mem_ctrls_0.selfRefreshEnergy      84615312540                       # Energy for self refresh per rank (pJ)
system.mem_ctrls_0.totalEnergy            89056395405                       # Total energy per rank (pJ)
system.mem_ctrls_0.averagePower            247.281997                       # Core power per rank (mW)
system.mem_ctrls_0.totalIdleTime         358739675822                       # Total Idle time Per DRAM Rank
system.mem_ctrls_0.memoryStateTime::IDLE     31479972                       # Time in different power states
system.mem_ctrls_0.memoryStateTime::REF     274566000                       # Time in different power states
system.mem_ctrls_0.memoryStateTime::SREF 352423443228                       # Time in different power states
system.mem_ctrls_0.memoryStateTime::PRE_PDN    680177993                       # Time in different power states
system.mem_ctrls_0.memoryStateTime::ACT    1095180771                       # Time in different power states
system.mem_ctrls_0.memoryStateTime::ACT_PDN   5636189830                       # Time in different power states
system.mem_ctrls_1.actEnergy                 22505280                       # Energy for activate commands per rank (pJ)
system.mem_ctrls_1.preEnergy                 11946660                       # Energy for precharge commands per rank (pJ)
system.mem_ctrls_1.readEnergy               298951800                       # Energy for read commands per rank (pJ)
system.mem_ctrls_1.writeEnergy                      0                       # Energy for write commands per rank (pJ)
system.mem_ctrls_1.refreshEnergy         703148160.000000                       # Energy for refresh commands per rank (pJ)
system.mem_ctrls_1.actBackEnergy            614209770                       # Energy for active background per rank (pJ)
system.mem_ctrls_1.preBackEnergy             35648160                       # Energy for precharge background per rank (pJ)
system.mem_ctrls_1.actPowerDownEnergy      2694907560                       # Energy for active power-down per rank (pJ)
system.mem_ctrls_1.prePowerDownEnergy       355223040                       # Energy for precharge power-down per rank (pJ)
system.mem_ctrls_1.selfRefreshEnergy      84496511220                       # Energy for self refresh per rank (pJ)
system.mem_ctrls_1.totalEnergy            89233051650                       # Total energy per rank (pJ)
system.mem_ctrls_1.averagePower            247.772517                       # Core power per rank (mW)
system.mem_ctrls_1.totalIdleTime         358701220899                       # Total Idle time Per DRAM Rank
system.mem_ctrls_1.memoryStateTime::IDLE     38782737                       # Time in different power states
system.mem_ctrls_1.memoryStateTime::REF     299696000                       # Time in different power states
system.mem_ctrls_1.memoryStateTime::SREF 351866310481                       # Time in different power states
system.mem_ctrls_1.memoryStateTime::PRE_PDN    925098105                       # Time in different power states
system.mem_ctrls_1.memoryStateTime::ACT    1101271860                       # Time in different power states
system.mem_ctrls_1.memoryStateTime::ACT_PDN   5909878611                       # Time in different power states
system.pwrStateResidencyTicks::UNDEFINED 360141037794                       # Cumulative time (in ticks) in various power states
system.cpu00.branchPred.lookups             106913257                       # Number of BP lookups
system.cpu00.branchPred.condPredicted       106913257                       # Number of conditional branches predicted
system.cpu00.branchPred.condIncorrect         2613191                       # Number of conditional branches incorrect
system.cpu00.branchPred.BTBLookups           86418076                       # Number of BTB lookups
system.cpu00.branchPred.BTBHits                     0                       # Number of BTB hits
system.cpu00.branchPred.BTBCorrect                  0                       # Number of correct BTB predictions (this stat may not work properly.
system.cpu00.branchPred.BTBHitPct            0.000000                       # BTB Hit Percentage
system.cpu00.branchPred.usedRAS               9279405                       # Number of times the RAS was used to get a target.
system.cpu00.branchPred.RASInCorrect           327560                       # Number of incorrect RAS predictions.
system.cpu00.branchPred.indirectLookups      86418076                       # Number of indirect predictor lookups.
system.cpu00.branchPred.indirectHits         54064417                       # Number of indirect target hits.
system.cpu00.branchPred.indirectMisses       32353659                       # Number of indirect misses.
system.cpu00.branchPredindirectMispredicted      1387089                       # Number of mispredicted indirect branches.
system.cpu_voltage_domain.voltage                   1                       # Voltage in Volts
system.cpu_clk_domain.clock                       333                       # Clock period in ticks
system.cpu00.dtb.walker.pwrStateResidencyTicks::UNDEFINED 360141037794                       # Cumulative time (in ticks) in various power states
system.cpu00.apic_clk_domain.clock               5328                       # Clock period in ticks
system.cpu00.interrupts.pwrStateResidencyTicks::UNDEFINED 360141037794                       # Cumulative time (in ticks) in various power states
system.cpu00.itb.walker.pwrStateResidencyTicks::UNDEFINED 360141037794                       # Cumulative time (in ticks) in various power states
system.cpu00.workload.num_syscalls                 17                       # Number of system calls
system.cpu00.pwrStateResidencyTicks::ON  360141037794                       # Cumulative time (in ticks) in various power states
system.cpu00.numCycles                     1081504619                       # number of cpu cycles simulated
system.cpu00.numWorkItemsStarted                    0                       # number of work items this cpu started
system.cpu00.numWorkItemsCompleted                  0                       # number of work items this cpu completed
system.cpu00.fetch.icacheStallCycles        457971101                       # Number of cycles fetch is stalled on an Icache miss
system.cpu00.fetch.Insts                   1289385274                       # Number of instructions fetch has processed
system.cpu00.fetch.Branches                 106913257                       # Number of branches that fetch encountered
system.cpu00.fetch.predictedBranches         63343822                       # Number of branches that fetch has predicted taken
system.cpu00.fetch.Cycles                   620642686                       # Number of cycles fetch has run and was not squashing or blocked
system.cpu00.fetch.SquashCycles               5256493                       # Number of cycles fetch has spent squashing
system.cpu00.fetch.MiscStallCycles                546                       # Number of cycles fetch has spent waiting on interrupts, or bad addresses, or out of MSHRs
system.cpu00.fetch.PendingTrapStallCycles         4285                       # Number of stall cycles due to pending traps
system.cpu00.fetch.PendingQuiesceStallCycles           13                       # Number of stall cycles due to pending quiesce instructions
system.cpu00.fetch.IcacheWaitRetryStallCycles           31                       # Number of stall cycles due to full MSHR
system.cpu00.fetch.CacheLines               152676259                       # Number of cache lines fetched
system.cpu00.fetch.IcacheSquashes             1216169                       # Number of outstanding Icache misses that were squashed
system.cpu00.fetch.rateDist::samples       1081246908                       # Number of instructions fetched each cycle (Total)
system.cpu00.fetch.rateDist::mean            1.830303                       # Number of instructions fetched each cycle (Total)
system.cpu00.fetch.rateDist::stdev           3.109420                       # Number of instructions fetched each cycle (Total)
system.cpu00.fetch.rateDist::underflows             0      0.00%      0.00% # Number of instructions fetched each cycle (Total)
system.cpu00.fetch.rateDist::0              758704373     70.17%     70.17% # Number of instructions fetched each cycle (Total)
system.cpu00.fetch.rateDist::1               20583522      1.90%     72.07% # Number of instructions fetched each cycle (Total)
system.cpu00.fetch.rateDist::2               23079247      2.13%     74.21% # Number of instructions fetched each cycle (Total)
system.cpu00.fetch.rateDist::3               25995991      2.40%     76.61% # Number of instructions fetched each cycle (Total)
system.cpu00.fetch.rateDist::4               18119324      1.68%     78.29% # Number of instructions fetched each cycle (Total)
system.cpu00.fetch.rateDist::5               19090641      1.77%     80.05% # Number of instructions fetched each cycle (Total)
system.cpu00.fetch.rateDist::6               22340046      2.07%     82.12% # Number of instructions fetched each cycle (Total)
system.cpu00.fetch.rateDist::7               14361894      1.33%     83.45% # Number of instructions fetched each cycle (Total)
system.cpu00.fetch.rateDist::8              178971870     16.55%    100.00% # Number of instructions fetched each cycle (Total)
system.cpu00.fetch.rateDist::overflows              0      0.00%    100.00% # Number of instructions fetched each cycle (Total)
system.cpu00.fetch.rateDist::min_value              0                       # Number of instructions fetched each cycle (Total)
system.cpu00.fetch.rateDist::max_value              8                       # Number of instructions fetched each cycle (Total)
system.cpu00.fetch.rateDist::total         1081246908                       # Number of instructions fetched each cycle (Total)
system.cpu00.fetch.branchRate                0.098856                       # Number of branch fetches per cycle
system.cpu00.fetch.rate                      1.192214                       # Number of inst fetches per cycle
system.cpu00.decode.IdleCycles              374982131                       # Number of cycles decode is idle
system.cpu00.decode.BlockedCycles           396280192                       # Number of cycles decode is blocked
system.cpu00.decode.RunCycles               283484679                       # Number of cycles decode is running
system.cpu00.decode.UnblockCycles            23871660                       # Number of cycles decode is unblocking
system.cpu00.decode.SquashCycles              2628246                       # Number of cycles decode is squashing
system.cpu00.decode.DecodedInsts           1961881920                       # Number of instructions handled by decode
system.cpu00.rename.SquashCycles              2628246                       # Number of cycles rename is squashing
system.cpu00.rename.IdleCycles              391746423                       # Number of cycles rename is idle
system.cpu00.rename.BlockCycles              80536773                       # Number of cycles rename is blocking
system.cpu00.rename.serializeStallCycles         3139                       # count of cycles rename stalled for serializing inst
system.cpu00.rename.RunCycles               289820409                       # Number of cycles rename is running
system.cpu00.rename.UnblockCycles           316511918                       # Number of cycles rename is unblocking
system.cpu00.rename.RenamedInsts           1950884763                       # Number of instructions processed by rename
system.cpu00.rename.ROBFullEvents               26384                       # Number of times rename has blocked due to ROB full
system.cpu00.rename.IQFullEvents             45669682                       # Number of times rename has blocked due to IQ full
system.cpu00.rename.LQFullEvents            249576737                       # Number of times rename has blocked due to LQ full
system.cpu00.rename.SQFullEvents             12008070                       # Number of times rename has blocked due to SQ full
system.cpu00.rename.RenamedOperands        2090451457                       # Number of destination operands rename has renamed
system.cpu00.rename.RenameLookups          4544490761                       # Number of register rename lookups that rename has made
system.cpu00.rename.int_rename_lookups     1995480765                       # Number of integer rename lookups
system.cpu00.rename.fp_rename_lookups      1407485415                       # Number of floating rename lookups
system.cpu00.rename.CommittedMaps          1981734667                       # Number of HB maps that are committed
system.cpu00.rename.UndoneMaps              108716790                       # Number of HB maps that are undone due to squashing
system.cpu00.rename.serializingInsts              470                       # count of serializing insts renamed
system.cpu00.rename.tempSerializingInsts          468                       # count of temporary serializing insts renamed
system.cpu00.rename.skidInsts               180881867                       # count of insts added to the skid buffer
system.cpu00.memDep0.insertedLoads          362592682                       # Number of loads inserted to the mem dependence unit.
system.cpu00.memDep0.insertedStores          87723954                       # Number of stores inserted to the mem dependence unit.
system.cpu00.memDep0.conflictingLoads        41640162                       # Number of conflicting loads.
system.cpu00.memDep0.conflictingStores        8170645                       # Number of conflicting stores.
system.cpu00.iq.iqInstsAdded               1936896598                       # Number of instructions added to the IQ (excludes non-spec)
system.cpu00.iq.iqNonSpecInstsAdded               906                       # Number of non-speculative instructions added to the IQ
system.cpu00.iq.iqInstsIssued              1905178017                       # Number of instructions issued
system.cpu00.iq.iqSquashedInstsIssued          167442                       # Number of squashed instructions issued
system.cpu00.iq.iqSquashedInstsExamined      94860188                       # Number of squashed instructions iterated over during squash; mainly for profiling
system.cpu00.iq.iqSquashedOperandsExamined    124772718                       # Number of squashed operands that are examined and possibly removed from graph
system.cpu00.iq.iqSquashedNonSpecRemoved          853                       # Number of squashed non-spec instructions that were removed
system.cpu00.iq.issued_per_cycle::samples   1081246908                       # Number of insts issued each cycle
system.cpu00.iq.issued_per_cycle::mean       1.762019                       # Number of insts issued each cycle
system.cpu00.iq.issued_per_cycle::stdev      1.979715                       # Number of insts issued each cycle
system.cpu00.iq.issued_per_cycle::underflows            0      0.00%      0.00% # Number of insts issued each cycle
system.cpu00.iq.issued_per_cycle::0         412009738     38.11%     38.11% # Number of insts issued each cycle
system.cpu00.iq.issued_per_cycle::1         194149135     17.96%     56.06% # Number of insts issued each cycle
system.cpu00.iq.issued_per_cycle::2         157587918     14.57%     70.64% # Number of insts issued each cycle
system.cpu00.iq.issued_per_cycle::3         110968629     10.26%     80.90% # Number of insts issued each cycle
system.cpu00.iq.issued_per_cycle::4          82737359      7.65%     88.55% # Number of insts issued each cycle
system.cpu00.iq.issued_per_cycle::5          53738456      4.97%     93.52% # Number of insts issued each cycle
system.cpu00.iq.issued_per_cycle::6          38858602      3.59%     97.11% # Number of insts issued each cycle
system.cpu00.iq.issued_per_cycle::7          19422737      1.80%     98.91% # Number of insts issued each cycle
system.cpu00.iq.issued_per_cycle::8          11774334      1.09%    100.00% # Number of insts issued each cycle
system.cpu00.iq.issued_per_cycle::overflows            0      0.00%    100.00% # Number of insts issued each cycle
system.cpu00.iq.issued_per_cycle::min_value            0                       # Number of insts issued each cycle
system.cpu00.iq.issued_per_cycle::max_value            8                       # Number of insts issued each cycle
system.cpu00.iq.issued_per_cycle::total    1081246908                       # Number of insts issued each cycle
system.cpu00.iq.fu_full::No_OpClass                 0      0.00%      0.00% # attempts to use FU when none available
system.cpu00.iq.fu_full::IntAlu               4018927     39.76%     39.76% # attempts to use FU when none available
system.cpu00.iq.fu_full::IntMult                    0      0.00%     39.76% # attempts to use FU when none available
system.cpu00.iq.fu_full::IntDiv                     0      0.00%     39.76% # attempts to use FU when none available
system.cpu00.iq.fu_full::FloatAdd             2641645     26.13%     65.89% # attempts to use FU when none available
system.cpu00.iq.fu_full::FloatCmp                   0      0.00%     65.89% # attempts to use FU when none available
system.cpu00.iq.fu_full::FloatCvt                   0      0.00%     65.89% # attempts to use FU when none available
system.cpu00.iq.fu_full::FloatMult                  0      0.00%     65.89% # attempts to use FU when none available
system.cpu00.iq.fu_full::FloatMultAcc               0      0.00%     65.89% # attempts to use FU when none available
system.cpu00.iq.fu_full::FloatDiv                   0      0.00%     65.89% # attempts to use FU when none available
system.cpu00.iq.fu_full::FloatMisc                  0      0.00%     65.89% # attempts to use FU when none available
system.cpu00.iq.fu_full::FloatSqrt                  0      0.00%     65.89% # attempts to use FU when none available
system.cpu00.iq.fu_full::SimdAdd                    0      0.00%     65.89% # attempts to use FU when none available
system.cpu00.iq.fu_full::SimdAddAcc                 0      0.00%     65.89% # attempts to use FU when none available
system.cpu00.iq.fu_full::SimdAlu                    0      0.00%     65.89% # attempts to use FU when none available
system.cpu00.iq.fu_full::SimdCmp                    0      0.00%     65.89% # attempts to use FU when none available
system.cpu00.iq.fu_full::SimdCvt                    0      0.00%     65.89% # attempts to use FU when none available
system.cpu00.iq.fu_full::SimdMisc                   0      0.00%     65.89% # attempts to use FU when none available
system.cpu00.iq.fu_full::SimdMult                   0      0.00%     65.89% # attempts to use FU when none available
system.cpu00.iq.fu_full::SimdMultAcc                0      0.00%     65.89% # attempts to use FU when none available
system.cpu00.iq.fu_full::SimdShift                  0      0.00%     65.89% # attempts to use FU when none available
system.cpu00.iq.fu_full::SimdShiftAcc               0      0.00%     65.89% # attempts to use FU when none available
system.cpu00.iq.fu_full::SimdSqrt                   0      0.00%     65.89% # attempts to use FU when none available
system.cpu00.iq.fu_full::SimdFloatAdd               0      0.00%     65.89% # attempts to use FU when none available
system.cpu00.iq.fu_full::SimdFloatAlu               0      0.00%     65.89% # attempts to use FU when none available
system.cpu00.iq.fu_full::SimdFloatCmp               0      0.00%     65.89% # attempts to use FU when none available
system.cpu00.iq.fu_full::SimdFloatCvt               0      0.00%     65.89% # attempts to use FU when none available
system.cpu00.iq.fu_full::SimdFloatDiv               0      0.00%     65.89% # attempts to use FU when none available
system.cpu00.iq.fu_full::SimdFloatMisc              0      0.00%     65.89% # attempts to use FU when none available
system.cpu00.iq.fu_full::SimdFloatMult              0      0.00%     65.89% # attempts to use FU when none available
system.cpu00.iq.fu_full::SimdFloatMultAcc            0      0.00%     65.89% # attempts to use FU when none available
system.cpu00.iq.fu_full::SimdFloatSqrt              0      0.00%     65.89% # attempts to use FU when none available
system.cpu00.iq.fu_full::MemRead              3168592     31.35%     97.24% # attempts to use FU when none available
system.cpu00.iq.fu_full::MemWrite               26077      0.26%     97.50% # attempts to use FU when none available
system.cpu00.iq.fu_full::FloatMemRead          253121      2.50%    100.00% # attempts to use FU when none available
system.cpu00.iq.fu_full::FloatMemWrite             35      0.00%    100.00% # attempts to use FU when none available
system.cpu00.iq.fu_full::IprAccess                  0      0.00%    100.00% # attempts to use FU when none available
system.cpu00.iq.fu_full::InstPrefetch               0      0.00%    100.00% # attempts to use FU when none available
system.cpu00.iq.FU_type_0::No_OpClass         1061792      0.06%      0.06% # Type of FU issued
system.cpu00.iq.FU_type_0::IntAlu           998251627     52.40%     52.45% # Type of FU issued
system.cpu00.iq.FU_type_0::IntMult                 75      0.00%     52.45% # Type of FU issued
system.cpu00.iq.FU_type_0::IntDiv                  28      0.00%     52.45% # Type of FU issued
system.cpu00.iq.FU_type_0::FloatAdd         458141711     24.05%     76.50% # Type of FU issued
system.cpu00.iq.FU_type_0::FloatCmp                 0      0.00%     76.50% # Type of FU issued
system.cpu00.iq.FU_type_0::FloatCvt                 0      0.00%     76.50% # Type of FU issued
system.cpu00.iq.FU_type_0::FloatMult                0      0.00%     76.50% # Type of FU issued
system.cpu00.iq.FU_type_0::FloatMultAcc             0      0.00%     76.50% # Type of FU issued
system.cpu00.iq.FU_type_0::FloatDiv                 0      0.00%     76.50% # Type of FU issued
system.cpu00.iq.FU_type_0::FloatMisc                0      0.00%     76.50% # Type of FU issued
system.cpu00.iq.FU_type_0::FloatSqrt                0      0.00%     76.50% # Type of FU issued
system.cpu00.iq.FU_type_0::SimdAdd                  0      0.00%     76.50% # Type of FU issued
system.cpu00.iq.FU_type_0::SimdAddAcc               0      0.00%     76.50% # Type of FU issued
system.cpu00.iq.FU_type_0::SimdAlu                  0      0.00%     76.50% # Type of FU issued
system.cpu00.iq.FU_type_0::SimdCmp                  0      0.00%     76.50% # Type of FU issued
system.cpu00.iq.FU_type_0::SimdCvt                  0      0.00%     76.50% # Type of FU issued
system.cpu00.iq.FU_type_0::SimdMisc                 0      0.00%     76.50% # Type of FU issued
system.cpu00.iq.FU_type_0::SimdMult                 0      0.00%     76.50% # Type of FU issued
system.cpu00.iq.FU_type_0::SimdMultAcc              0      0.00%     76.50% # Type of FU issued
system.cpu00.iq.FU_type_0::SimdShift                0      0.00%     76.50% # Type of FU issued
system.cpu00.iq.FU_type_0::SimdShiftAcc             0      0.00%     76.50% # Type of FU issued
system.cpu00.iq.FU_type_0::SimdSqrt                 0      0.00%     76.50% # Type of FU issued
system.cpu00.iq.FU_type_0::SimdFloatAdd             0      0.00%     76.50% # Type of FU issued
system.cpu00.iq.FU_type_0::SimdFloatAlu             0      0.00%     76.50% # Type of FU issued
system.cpu00.iq.FU_type_0::SimdFloatCmp             0      0.00%     76.50% # Type of FU issued
system.cpu00.iq.FU_type_0::SimdFloatCvt             0      0.00%     76.50% # Type of FU issued
system.cpu00.iq.FU_type_0::SimdFloatDiv             0      0.00%     76.50% # Type of FU issued
system.cpu00.iq.FU_type_0::SimdFloatMisc            0      0.00%     76.50% # Type of FU issued
system.cpu00.iq.FU_type_0::SimdFloatMult            0      0.00%     76.50% # Type of FU issued
system.cpu00.iq.FU_type_0::SimdFloatMultAcc            0      0.00%     76.50% # Type of FU issued
system.cpu00.iq.FU_type_0::SimdFloatSqrt            0      0.00%     76.50% # Type of FU issued
system.cpu00.iq.FU_type_0::MemRead          209530070     11.00%     87.50% # Type of FU issued
system.cpu00.iq.FU_type_0::MemWrite          53413215      2.80%     90.30% # Type of FU issued
system.cpu00.iq.FU_type_0::FloatMemRead     152020226      7.98%     98.28% # Type of FU issued
system.cpu00.iq.FU_type_0::FloatMemWrite     32759273      1.72%    100.00% # Type of FU issued
system.cpu00.iq.FU_type_0::IprAccess                0      0.00%    100.00% # Type of FU issued
system.cpu00.iq.FU_type_0::InstPrefetch             0      0.00%    100.00% # Type of FU issued
system.cpu00.iq.FU_type_0::total           1905178017                       # Type of FU issued
system.cpu00.iq.rate                         1.761600                       # Inst issue rate
system.cpu00.iq.fu_busy_cnt                  10108397                       # FU busy when requested
system.cpu00.iq.fu_busy_rate                 0.005306                       # FU busy rate (busy events/executed inst)
system.cpu00.iq.int_inst_queue_reads       3240748893                       # Number of integer instruction queue reads
system.cpu00.iq.int_inst_queue_writes      1150715797                       # Number of integer instruction queue writes
system.cpu00.iq.int_inst_queue_wakeup_accesses   1072255492                       # Number of integer instruction queue wakeup accesses
system.cpu00.iq.fp_inst_queue_reads        1661129888                       # Number of floating instruction queue reads
system.cpu00.iq.fp_inst_queue_writes        881057889                       # Number of floating instruction queue writes
system.cpu00.iq.fp_inst_queue_wakeup_accesses    821768693                       # Number of floating instruction queue wakeup accesses
system.cpu00.iq.int_alu_accesses           1081668818                       # Number of integer alu accesses
system.cpu00.iq.fp_alu_accesses             832555804                       # Number of floating point alu accesses
system.cpu00.iew.lsq.thread0.forwLoads       46317683                       # Number of loads that had data forwarded from stores
system.cpu00.iew.lsq.thread0.invAddrLoads            0                       # Number of loads ignored due to an invalid address
system.cpu00.iew.lsq.thread0.squashedLoads     14911775                       # Number of loads squashed
system.cpu00.iew.lsq.thread0.ignoredResponses        11035                       # Number of memory responses ignored because the instruction is squashed
system.cpu00.iew.lsq.thread0.memOrderViolation        16872                       # Number of memory ordering violations
system.cpu00.iew.lsq.thread0.squashedStores      3071400                       # Number of stores squashed
system.cpu00.iew.lsq.thread0.invAddrSwpfs            0                       # Number of software prefetches ignored due to an invalid address
system.cpu00.iew.lsq.thread0.blockedLoads            0                       # Number of blocked loads due to partial load-store forwarding
system.cpu00.iew.lsq.thread0.rescheduledLoads      3755424                       # Number of loads that were rescheduled
system.cpu00.iew.lsq.thread0.cacheBlocked        50293                       # Number of times an access to memory failed due to the cache being blocked
system.cpu00.iew.iewIdleCycles                      0                       # Number of cycles IEW is idle
system.cpu00.iew.iewSquashCycles              2628246                       # Number of cycles IEW is squashing
system.cpu00.iew.iewBlockCycles              17275786                       # Number of cycles IEW is blocking
system.cpu00.iew.iewUnblockCycles            38854895                       # Number of cycles IEW is unblocking
system.cpu00.iew.iewDispatchedInsts        1936897504                       # Number of instructions dispatched to IQ
system.cpu00.iew.iewDispSquashedInsts         2833227                       # Number of squashed instructions skipped by dispatch
system.cpu00.iew.iewDispLoadInsts           362592682                       # Number of dispatched load instructions
system.cpu00.iew.iewDispStoreInsts           87723954                       # Number of dispatched store instructions
system.cpu00.iew.iewDispNonSpecInsts              506                       # Number of dispatched non-speculative instructions
system.cpu00.iew.iewIQFullEvents              1424683                       # Number of times the IQ has become full, causing a stall
system.cpu00.iew.iewLSQFullEvents            37330061                       # Number of times the LSQ has become full, causing a stall
system.cpu00.iew.memOrderViolationEvents        16872                       # Number of memory order violations
system.cpu00.iew.predictedTakenIncorrect       802785                       # Number of branches that were predicted taken incorrectly
system.cpu00.iew.predictedNotTakenIncorrect      2243765                       # Number of branches that were predicted not taken incorrectly
system.cpu00.iew.branchMispredicts            3046550                       # Number of branch mispredicts detected at execute
system.cpu00.iew.iewExecutedInsts          1901329868                       # Number of executed instructions
system.cpu00.iew.iewExecLoadInsts           360600804                       # Number of load instructions executed
system.cpu00.iew.iewExecSquashedInsts         3848149                       # Number of squashed instructions skipped in execute
system.cpu00.iew.exec_swp                           0                       # number of swp insts executed
system.cpu00.iew.exec_nop                           0                       # number of nop insts executed
system.cpu00.iew.exec_refs                  446612389                       # number of memory reference insts executed
system.cpu00.iew.exec_branches               99505368                       # Number of branches executed
system.cpu00.iew.exec_stores                 86011585                       # Number of stores executed
system.cpu00.iew.exec_rate                   1.758041                       # Inst execution rate
system.cpu00.iew.wb_sent                   1894786054                       # cumulative count of insts sent to commit
system.cpu00.iew.wb_count                  1894024185                       # cumulative count of insts written-back
system.cpu00.iew.wb_producers              1421719137                       # num instructions producing a value
system.cpu00.iew.wb_consumers              2284664067                       # num instructions consuming a value
system.cpu00.iew.wb_rate                     1.751286                       # insts written-back per cycle
system.cpu00.iew.wb_fanout                   0.622288                       # average fanout of values written-back
system.cpu00.commit.commitSquashedInsts      94872041                       # The number of squashed insts skipped by commit
system.cpu00.commit.commitNonSpecStalls            53                       # The number of times commit has been forced to stall to communicate backwards
system.cpu00.commit.branchMispredicts         2613717                       # The number of times a branch was mispredicted
system.cpu00.commit.committed_per_cycle::samples   1067929823                       # Number of insts commited each cycle
system.cpu00.commit.committed_per_cycle::mean     1.724867                       # Number of insts commited each cycle
system.cpu00.commit.committed_per_cycle::stdev     2.725756                       # Number of insts commited each cycle
system.cpu00.commit.committed_per_cycle::underflows            0      0.00%      0.00% # Number of insts commited each cycle
system.cpu00.commit.committed_per_cycle::0    611577868     57.27%     57.27% # Number of insts commited each cycle
system.cpu00.commit.committed_per_cycle::1    137321072     12.86%     70.13% # Number of insts commited each cycle
system.cpu00.commit.committed_per_cycle::2     45274302      4.24%     74.37% # Number of insts commited each cycle
system.cpu00.commit.committed_per_cycle::3     62995976      5.90%     80.26% # Number of insts commited each cycle
system.cpu00.commit.committed_per_cycle::4     42613710      3.99%     84.25% # Number of insts commited each cycle
system.cpu00.commit.committed_per_cycle::5     20154932      1.89%     86.14% # Number of insts commited each cycle
system.cpu00.commit.committed_per_cycle::6      9470656      0.89%     87.03% # Number of insts commited each cycle
system.cpu00.commit.committed_per_cycle::7     11044180      1.03%     88.06% # Number of insts commited each cycle
system.cpu00.commit.committed_per_cycle::8    127477127     11.94%    100.00% # Number of insts commited each cycle
system.cpu00.commit.committed_per_cycle::overflows            0      0.00%    100.00% # Number of insts commited each cycle
system.cpu00.commit.committed_per_cycle::min_value            0                       # Number of insts commited each cycle
system.cpu00.commit.committed_per_cycle::max_value            8                       # Number of insts commited each cycle
system.cpu00.commit.committed_per_cycle::total   1067929823                       # Number of insts commited each cycle
system.cpu00.commit.committedInsts         1207665125                       # Number of instructions committed
system.cpu00.commit.committedOps           1842037316                       # Number of ops (including micro ops) committed
system.cpu00.commit.swp_count                       0                       # Number of s/w prefetches committed
system.cpu00.commit.refs                    432333461                       # Number of memory references committed
system.cpu00.commit.loads                   347680907                       # Number of loads committed
system.cpu00.commit.membars                        24                       # Number of memory barriers committed
system.cpu00.commit.branches                 96348910                       # Number of branches committed
system.cpu00.commit.fp_insts                803403263                       # Number of committed floating point instructions.
system.cpu00.commit.int_insts              1214403260                       # Number of committed integer instructions.
system.cpu00.commit.function_calls            7507260                       # Number of function calls committed.
system.cpu00.commit.op_class_0::No_OpClass       170087      0.01%      0.01% # Class of committed instruction
system.cpu00.commit.op_class_0::IntAlu      959970674     52.11%     52.12% # Class of committed instruction
system.cpu00.commit.op_class_0::IntMult            73      0.00%     52.12% # Class of committed instruction
system.cpu00.commit.op_class_0::IntDiv             21      0.00%     52.12% # Class of committed instruction
system.cpu00.commit.op_class_0::FloatAdd    449563000     24.41%     76.53% # Class of committed instruction
system.cpu00.commit.op_class_0::FloatCmp            0      0.00%     76.53% # Class of committed instruction
system.cpu00.commit.op_class_0::FloatCvt            0      0.00%     76.53% # Class of committed instruction
system.cpu00.commit.op_class_0::FloatMult            0      0.00%     76.53% # Class of committed instruction
system.cpu00.commit.op_class_0::FloatMultAcc            0      0.00%     76.53% # Class of committed instruction
system.cpu00.commit.op_class_0::FloatDiv            0      0.00%     76.53% # Class of committed instruction
system.cpu00.commit.op_class_0::FloatMisc            0      0.00%     76.53% # Class of committed instruction
system.cpu00.commit.op_class_0::FloatSqrt            0      0.00%     76.53% # Class of committed instruction
system.cpu00.commit.op_class_0::SimdAdd             0      0.00%     76.53% # Class of committed instruction
system.cpu00.commit.op_class_0::SimdAddAcc            0      0.00%     76.53% # Class of committed instruction
system.cpu00.commit.op_class_0::SimdAlu             0      0.00%     76.53% # Class of committed instruction
system.cpu00.commit.op_class_0::SimdCmp             0      0.00%     76.53% # Class of committed instruction
system.cpu00.commit.op_class_0::SimdCvt             0      0.00%     76.53% # Class of committed instruction
system.cpu00.commit.op_class_0::SimdMisc            0      0.00%     76.53% # Class of committed instruction
system.cpu00.commit.op_class_0::SimdMult            0      0.00%     76.53% # Class of committed instruction
system.cpu00.commit.op_class_0::SimdMultAcc            0      0.00%     76.53% # Class of committed instruction
system.cpu00.commit.op_class_0::SimdShift            0      0.00%     76.53% # Class of committed instruction
system.cpu00.commit.op_class_0::SimdShiftAcc            0      0.00%     76.53% # Class of committed instruction
system.cpu00.commit.op_class_0::SimdSqrt            0      0.00%     76.53% # Class of committed instruction
system.cpu00.commit.op_class_0::SimdFloatAdd            0      0.00%     76.53% # Class of committed instruction
system.cpu00.commit.op_class_0::SimdFloatAlu            0      0.00%     76.53% # Class of committed instruction
system.cpu00.commit.op_class_0::SimdFloatCmp            0      0.00%     76.53% # Class of committed instruction
system.cpu00.commit.op_class_0::SimdFloatCvt            0      0.00%     76.53% # Class of committed instruction
system.cpu00.commit.op_class_0::SimdFloatDiv            0      0.00%     76.53% # Class of committed instruction
system.cpu00.commit.op_class_0::SimdFloatMisc            0      0.00%     76.53% # Class of committed instruction
system.cpu00.commit.op_class_0::SimdFloatMult            0      0.00%     76.53% # Class of committed instruction
system.cpu00.commit.op_class_0::SimdFloatMultAcc            0      0.00%     76.53% # Class of committed instruction
system.cpu00.commit.op_class_0::SimdFloatSqrt            0      0.00%     76.53% # Class of committed instruction
system.cpu00.commit.op_class_0::MemRead     203888165     11.07%     87.60% # Class of committed instruction
system.cpu00.commit.op_class_0::MemWrite     52506221      2.85%     90.45% # Class of committed instruction
system.cpu00.commit.op_class_0::FloatMemRead    143792742      7.81%     98.25% # Class of committed instruction
system.cpu00.commit.op_class_0::FloatMemWrite     32146333      1.75%    100.00% # Class of committed instruction
system.cpu00.commit.op_class_0::IprAccess            0      0.00%    100.00% # Class of committed instruction
system.cpu00.commit.op_class_0::InstPrefetch            0      0.00%    100.00% # Class of committed instruction
system.cpu00.commit.op_class_0::total      1842037316                       # Class of committed instruction
system.cpu00.commit.bw_lim_events           127477127                       # number cycles where commit BW limit reached
system.cpu00.rob.rob_reads                 2877362053                       # The number of ROB reads
system.cpu00.rob.rob_writes                3887143972                       # The number of ROB writes
system.cpu00.timesIdled                           879                       # Number of times that the entire CPU went into an idle state and unscheduled itself
system.cpu00.idleCycles                        257711                       # Total number of cycles that the CPU has spent unscheduled due to idling
system.cpu00.committedInsts                1207665125                       # Number of Instructions Simulated
system.cpu00.committedOps                  1842037316                       # Number of Ops (including micro ops) Simulated
system.cpu00.cpi                             0.895534                       # CPI: Cycles Per Instruction
system.cpu00.cpi_total                       0.895534                       # CPI: Total CPI of All Threads
system.cpu00.ipc                             1.116653                       # IPC: Instructions Per Cycle
system.cpu00.ipc_total                       1.116653                       # IPC: Total IPC of All Threads
system.cpu00.int_regfile_reads             1947027693                       # number of integer regfile reads
system.cpu00.int_regfile_writes             918872411                       # number of integer regfile writes
system.cpu00.fp_regfile_reads              1354659538                       # number of floating regfile reads
system.cpu00.fp_regfile_writes              767547664                       # number of floating regfile writes
system.cpu00.cc_regfile_reads               390592432                       # number of cc regfile reads
system.cpu00.cc_regfile_writes              347738562                       # number of cc regfile writes
system.cpu00.misc_regfile_reads             714570405                       # number of misc regfile reads
system.cpu00.dcache.tags.pwrStateResidencyTicks::UNDEFINED 360141037794                       # Cumulative time (in ticks) in various power states
system.cpu00.dcache.tags.replacements         5312827                       # number of replacements
system.cpu00.dcache.tags.tagsinuse         511.899795                       # Cycle average of tags in use
system.cpu00.dcache.tags.total_refs         384694908                       # Total number of references to valid blocks.
system.cpu00.dcache.tags.sampled_refs         5313339                       # Sample count of references to valid blocks.
system.cpu00.dcache.tags.avg_refs           72.401725                       # Average number of references to valid blocks.
system.cpu00.dcache.tags.warmup_cycle       193322817                       # Cycle when the warmup percentage was hit.
system.cpu00.dcache.tags.occ_blocks::cpu00.data   511.899795                       # Average occupied blocks per requestor
system.cpu00.dcache.tags.occ_percent::cpu00.data     0.999804                       # Average percentage of cache occupancy
system.cpu00.dcache.tags.occ_percent::total     0.999804                       # Average percentage of cache occupancy
system.cpu00.dcache.tags.occ_task_id_blocks::1024          512                       # Occupied blocks per task id
system.cpu00.dcache.tags.age_task_id_blocks_1024::0          105                       # Occupied blocks per task id
system.cpu00.dcache.tags.age_task_id_blocks_1024::1          405                       # Occupied blocks per task id
system.cpu00.dcache.tags.age_task_id_blocks_1024::2            2                       # Occupied blocks per task id
system.cpu00.dcache.tags.occ_task_id_percent::1024            1                       # Percentage of cache occupancy per task id
system.cpu00.dcache.tags.tag_accesses       795569397                       # Number of tag accesses
system.cpu00.dcache.tags.data_accesses      795569397                       # Number of data accesses
system.cpu00.dcache.pwrStateResidencyTicks::UNDEFINED 360141037794                       # Cumulative time (in ticks) in various power states
system.cpu00.dcache.ReadReq_hits::cpu00.data    297855603                       # number of ReadReq hits
system.cpu00.dcache.ReadReq_hits::total     297855603                       # number of ReadReq hits
system.cpu00.dcache.WriteReq_hits::cpu00.data     80083137                       # number of WriteReq hits
system.cpu00.dcache.WriteReq_hits::total     80083137                       # number of WriteReq hits
system.cpu00.dcache.demand_hits::cpu00.data    377938740                       # number of demand (read+write) hits
system.cpu00.dcache.demand_hits::total      377938740                       # number of demand (read+write) hits
system.cpu00.dcache.overall_hits::cpu00.data    377938740                       # number of overall hits
system.cpu00.dcache.overall_hits::total     377938740                       # number of overall hits
system.cpu00.dcache.ReadReq_misses::cpu00.data     12619864                       # number of ReadReq misses
system.cpu00.dcache.ReadReq_misses::total     12619864                       # number of ReadReq misses
system.cpu00.dcache.WriteReq_misses::cpu00.data      4569425                       # number of WriteReq misses
system.cpu00.dcache.WriteReq_misses::total      4569425                       # number of WriteReq misses
system.cpu00.dcache.demand_misses::cpu00.data     17189289                       # number of demand (read+write) misses
system.cpu00.dcache.demand_misses::total     17189289                       # number of demand (read+write) misses
system.cpu00.dcache.overall_misses::cpu00.data     17189289                       # number of overall misses
system.cpu00.dcache.overall_misses::total     17189289                       # number of overall misses
system.cpu00.dcache.ReadReq_miss_latency::cpu00.data 339554029743                       # number of ReadReq miss cycles
system.cpu00.dcache.ReadReq_miss_latency::total 339554029743                       # number of ReadReq miss cycles
system.cpu00.dcache.WriteReq_miss_latency::cpu00.data  42504129989                       # number of WriteReq miss cycles
system.cpu00.dcache.WriteReq_miss_latency::total  42504129989                       # number of WriteReq miss cycles
system.cpu00.dcache.demand_miss_latency::cpu00.data 382058159732                       # number of demand (read+write) miss cycles
system.cpu00.dcache.demand_miss_latency::total 382058159732                       # number of demand (read+write) miss cycles
system.cpu00.dcache.overall_miss_latency::cpu00.data 382058159732                       # number of overall miss cycles
system.cpu00.dcache.overall_miss_latency::total 382058159732                       # number of overall miss cycles
system.cpu00.dcache.ReadReq_accesses::cpu00.data    310475467                       # number of ReadReq accesses(hits+misses)
system.cpu00.dcache.ReadReq_accesses::total    310475467                       # number of ReadReq accesses(hits+misses)
system.cpu00.dcache.WriteReq_accesses::cpu00.data     84652562                       # number of WriteReq accesses(hits+misses)
system.cpu00.dcache.WriteReq_accesses::total     84652562                       # number of WriteReq accesses(hits+misses)
system.cpu00.dcache.demand_accesses::cpu00.data    395128029                       # number of demand (read+write) accesses
system.cpu00.dcache.demand_accesses::total    395128029                       # number of demand (read+write) accesses
system.cpu00.dcache.overall_accesses::cpu00.data    395128029                       # number of overall (read+write) accesses
system.cpu00.dcache.overall_accesses::total    395128029                       # number of overall (read+write) accesses
system.cpu00.dcache.ReadReq_miss_rate::cpu00.data     0.040647                       # miss rate for ReadReq accesses
system.cpu00.dcache.ReadReq_miss_rate::total     0.040647                       # miss rate for ReadReq accesses
system.cpu00.dcache.WriteReq_miss_rate::cpu00.data     0.053979                       # miss rate for WriteReq accesses
system.cpu00.dcache.WriteReq_miss_rate::total     0.053979                       # miss rate for WriteReq accesses
system.cpu00.dcache.demand_miss_rate::cpu00.data     0.043503                       # miss rate for demand accesses
system.cpu00.dcache.demand_miss_rate::total     0.043503                       # miss rate for demand accesses
system.cpu00.dcache.overall_miss_rate::cpu00.data     0.043503                       # miss rate for overall accesses
system.cpu00.dcache.overall_miss_rate::total     0.043503                       # miss rate for overall accesses
system.cpu00.dcache.ReadReq_avg_miss_latency::cpu00.data 26906.314501                       # average ReadReq miss latency
system.cpu00.dcache.ReadReq_avg_miss_latency::total 26906.314501                       # average ReadReq miss latency
system.cpu00.dcache.WriteReq_avg_miss_latency::cpu00.data  9301.855264                       # average WriteReq miss latency
system.cpu00.dcache.WriteReq_avg_miss_latency::total  9301.855264                       # average WriteReq miss latency
system.cpu00.dcache.demand_avg_miss_latency::cpu00.data 22226.524886                       # average overall miss latency
system.cpu00.dcache.demand_avg_miss_latency::total 22226.524886                       # average overall miss latency
system.cpu00.dcache.overall_avg_miss_latency::cpu00.data 22226.524886                       # average overall miss latency
system.cpu00.dcache.overall_avg_miss_latency::total 22226.524886                       # average overall miss latency
system.cpu00.dcache.blocked_cycles::no_mshrs      4920915                       # number of cycles access was blocked
system.cpu00.dcache.blocked_cycles::no_targets            0                       # number of cycles access was blocked
system.cpu00.dcache.blocked::no_mshrs           66022                       # number of cycles access was blocked
system.cpu00.dcache.blocked::no_targets             0                       # number of cycles access was blocked
system.cpu00.dcache.avg_blocked_cycles::no_mshrs    74.534473                       # average number of cycles each access was blocked
system.cpu00.dcache.avg_blocked_cycles::no_targets          nan                       # average number of cycles each access was blocked
system.cpu00.dcache.writebacks::writebacks      4653643                       # number of writebacks
system.cpu00.dcache.writebacks::total         4653643                       # number of writebacks
system.cpu00.dcache.ReadReq_mshr_hits::cpu00.data      7430732                       # number of ReadReq MSHR hits
system.cpu00.dcache.ReadReq_mshr_hits::total      7430732                       # number of ReadReq MSHR hits
system.cpu00.dcache.WriteReq_mshr_hits::cpu00.data          523                       # number of WriteReq MSHR hits
system.cpu00.dcache.WriteReq_mshr_hits::total          523                       # number of WriteReq MSHR hits
system.cpu00.dcache.demand_mshr_hits::cpu00.data      7431255                       # number of demand (read+write) MSHR hits
system.cpu00.dcache.demand_mshr_hits::total      7431255                       # number of demand (read+write) MSHR hits
system.cpu00.dcache.overall_mshr_hits::cpu00.data      7431255                       # number of overall MSHR hits
system.cpu00.dcache.overall_mshr_hits::total      7431255                       # number of overall MSHR hits
system.cpu00.dcache.ReadReq_mshr_misses::cpu00.data      5189132                       # number of ReadReq MSHR misses
system.cpu00.dcache.ReadReq_mshr_misses::total      5189132                       # number of ReadReq MSHR misses
system.cpu00.dcache.WriteReq_mshr_misses::cpu00.data      4568902                       # number of WriteReq MSHR misses
system.cpu00.dcache.WriteReq_mshr_misses::total      4568902                       # number of WriteReq MSHR misses
system.cpu00.dcache.demand_mshr_misses::cpu00.data      9758034                       # number of demand (read+write) MSHR misses
system.cpu00.dcache.demand_mshr_misses::total      9758034                       # number of demand (read+write) MSHR misses
system.cpu00.dcache.overall_mshr_misses::cpu00.data      9758034                       # number of overall MSHR misses
system.cpu00.dcache.overall_mshr_misses::total      9758034                       # number of overall MSHR misses
system.cpu00.dcache.ReadReq_mshr_miss_latency::cpu00.data 166297096773                       # number of ReadReq MSHR miss cycles
system.cpu00.dcache.ReadReq_mshr_miss_latency::total 166297096773                       # number of ReadReq MSHR miss cycles
system.cpu00.dcache.WriteReq_mshr_miss_latency::cpu00.data  36415047833                       # number of WriteReq MSHR miss cycles
system.cpu00.dcache.WriteReq_mshr_miss_latency::total  36415047833                       # number of WriteReq MSHR miss cycles
system.cpu00.dcache.demand_mshr_miss_latency::cpu00.data 202712144606                       # number of demand (read+write) MSHR miss cycles
system.cpu00.dcache.demand_mshr_miss_latency::total 202712144606                       # number of demand (read+write) MSHR miss cycles
[...]
system.l3.overall_miss_latency::cpu00.data   8701032591                       # number of overall miss cycles
system.l3.overall_miss_latency::total      8881229547                       # number of overall miss cycles
system.l3.WritebackDirty_accesses::writebacks      5119001                       # number of WritebackDirty accesses(hits+misses)
system.l3.WritebackDirty_accesses::total      5119001                       # number of WritebackDirty accesses(hits+misses)
system.l3.ReadExReq_accesses::cpu00.data        82396                       # number of ReadExReq accesses(hits+misses)
system.l3.ReadExReq_accesses::total             82396                       # number of ReadExReq accesses(hits+misses)
system.l3.ReadSharedReq_accesses::cpu00.inst         1418                       # number of ReadSharedReq accesses(hits+misses)
system.l3.ReadSharedReq_accesses::cpu00.data      5049740                       # number of ReadSharedReq accesses(hits+misses)
system.l3.ReadSharedReq_accesses::total       5051158                       # number of ReadSharedReq accesses(hits+misses)
system.l3.demand_accesses::cpu00.inst            1418                       # number of demand (read+write) accesses
system.l3.demand_accesses::cpu00.data         5132136                       # number of demand (read+write) accesses
system.l3.demand_accesses::total              5133554                       # number of demand (read+write) accesses
system.l3.overall_accesses::cpu00.inst           1418                       # number of overall (read+write) accesses
system.l3.overall_accesses::cpu00.data        5132136                       # number of overall (read+write) accesses
system.l3.overall_accesses::total             5133554                       # number of overall (read+write) accesses
system.l3.ReadExReq_miss_rate::cpu00.data     0.997148                       # miss rate for ReadExReq accesses
system.l3.ReadExReq_miss_rate::total         0.997148                       # miss rate for ReadExReq accesses
system.l3.ReadSharedReq_miss_rate::cpu00.inst     0.952750                       # miss rate for ReadSharedReq accesses
system.l3.ReadSharedReq_miss_rate::cpu00.data     0.000053                       # miss rate for ReadSharedReq accesses
system.l3.ReadSharedReq_miss_rate::total     0.000321                       # miss rate for ReadSharedReq accesses
system.l3.demand_miss_rate::cpu00.inst       0.952750                       # miss rate for demand accesses
system.l3.demand_miss_rate::cpu00.data       0.016061                       # miss rate for demand accesses
system.l3.demand_miss_rate::total            0.016320                       # miss rate for demand accesses
system.l3.overall_miss_rate::cpu00.inst      0.952750                       # miss rate for overall accesses
system.l3.overall_miss_rate::cpu00.data      0.016061                       # miss rate for overall accesses
system.l3.overall_miss_rate::total           0.016320                       # miss rate for overall accesses
system.l3.ReadExReq_avg_miss_latency::cpu00.data 105468.810056                       # average ReadExReq miss latency
system.l3.ReadExReq_avg_miss_latency::total 105468.810056                       # average ReadExReq miss latency
system.l3.ReadSharedReq_avg_miss_latency::cpu00.inst 133380.426351                       # average ReadSharedReq miss latency
system.l3.ReadSharedReq_avg_miss_latency::cpu00.data 132871.970149                       # average ReadSharedReq miss latency
system.l3.ReadSharedReq_avg_miss_latency::total 133296.259419                       # average ReadSharedReq miss latency
system.l3.demand_avg_miss_latency::cpu00.inst 133380.426351                       # average overall miss latency
system.l3.demand_avg_miss_latency::cpu00.data 105557.905482                       # average overall miss latency
system.l3.demand_avg_miss_latency::total 106006.559406                       # average overall miss latency
system.l3.overall_avg_miss_latency::cpu00.inst 133380.426351                       # average overall miss latency
system.l3.overall_avg_miss_latency::cpu00.data 105557.905482                       # average overall miss latency
system.l3.overall_avg_miss_latency::total 106006.559406                       # average overall miss latency
system.l3.blocked_cycles::no_mshrs                  0                       # number of cycles access was blocked
system.l3.blocked_cycles::no_targets                0                       # number of cycles access was blocked
system.l3.blocked::no_mshrs                         0                       # number of cycles access was blocked
system.l3.blocked::no_targets                       0                       # number of cycles access was blocked
system.l3.avg_blocked_cycles::no_mshrs            nan                       # average number of cycles each access was blocked
system.l3.avg_blocked_cycles::no_targets          nan                       # average number of cycles each access was blocked
system.l3.ReadExReq_mshr_misses::cpu00.data        82161                       # number of ReadExReq MSHR misses
system.l3.ReadExReq_mshr_misses::total          82161                       # number of ReadExReq MSHR misses
system.l3.ReadSharedReq_mshr_misses::cpu00.inst         1351                       # number of ReadSharedReq MSHR misses
system.l3.ReadSharedReq_mshr_misses::cpu00.data          268                       # number of ReadSharedReq MSHR misses
system.l3.ReadSharedReq_mshr_misses::total         1619                       # number of ReadSharedReq MSHR misses
system.l3.demand_mshr_misses::cpu00.inst         1351                       # number of demand (read+write) MSHR misses
system.l3.demand_mshr_misses::cpu00.data        82429                       # number of demand (read+write) MSHR misses
system.l3.demand_mshr_misses::total             83780                       # number of demand (read+write) MSHR misses
system.l3.overall_mshr_misses::cpu00.inst         1351                       # number of overall MSHR misses
system.l3.overall_mshr_misses::cpu00.data        82429                       # number of overall MSHR misses
system.l3.overall_mshr_misses::total            83780                       # number of overall MSHR misses
system.l3.ReadExReq_mshr_miss_latency::cpu00.data   6846054876                       # number of ReadExReq MSHR miss cycles
system.l3.ReadExReq_mshr_miss_latency::total   6846054876                       # number of ReadExReq MSHR miss cycles
system.l3.ReadSharedReq_mshr_miss_latency::cpu00.inst    150283016                       # number of ReadSharedReq MSHR miss cycles
system.l3.ReadSharedReq_mshr_miss_latency::cpu00.data     29675296                       # number of ReadSharedReq MSHR miss cycles
system.l3.ReadSharedReq_mshr_miss_latency::total    179958312                       # number of ReadSharedReq MSHR miss cycles
system.l3.demand_mshr_miss_latency::cpu00.inst    150283016                       # number of demand (read+write) MSHR miss cycles
system.l3.demand_mshr_miss_latency::cpu00.data   6875730172                       # number of demand (read+write) MSHR miss cycles
system.l3.demand_mshr_miss_latency::total   7026013188                       # number of demand (read+write) MSHR miss cycles
system.l3.overall_mshr_miss_latency::cpu00.inst    150283016                       # number of overall MSHR miss cycles
system.l3.overall_mshr_miss_latency::cpu00.data   6875730172                       # number of overall MSHR miss cycles
system.l3.overall_mshr_miss_latency::total   7026013188                       # number of overall MSHR miss cycles
system.l3.ReadExReq_mshr_miss_rate::cpu00.data     0.997148                       # mshr miss rate for ReadExReq accesses
system.l3.ReadExReq_mshr_miss_rate::total     0.997148                       # mshr miss rate for ReadExReq accesses
system.l3.ReadSharedReq_mshr_miss_rate::cpu00.inst     0.952750                       # mshr miss rate for ReadSharedReq accesses
system.l3.ReadSharedReq_mshr_miss_rate::cpu00.data     0.000053                       # mshr miss rate for ReadSharedReq accesses
system.l3.ReadSharedReq_mshr_miss_rate::total     0.000321                       # mshr miss rate for ReadSharedReq accesses
system.l3.demand_mshr_miss_rate::cpu00.inst     0.952750                       # mshr miss rate for demand accesses
system.l3.demand_mshr_miss_rate::cpu00.data     0.016061                       # mshr miss rate for demand accesses
system.l3.demand_mshr_miss_rate::total       0.016320                       # mshr miss rate for demand accesses
system.l3.overall_mshr_miss_rate::cpu00.inst     0.952750                       # mshr miss rate for overall accesses
system.l3.overall_mshr_miss_rate::cpu00.data     0.016061                       # mshr miss rate for overall accesses
system.l3.overall_mshr_miss_rate::total      0.016320                       # mshr miss rate for overall accesses
system.l3.ReadExReq_avg_mshr_miss_latency::cpu00.data 83324.872823                       # average ReadExReq mshr miss latency
system.l3.ReadExReq_avg_mshr_miss_latency::total 83324.872823                       # average ReadExReq mshr miss latency
system.l3.ReadSharedReq_avg_mshr_miss_latency::cpu00.inst 111238.353812                       # average ReadSharedReq mshr miss latency
system.l3.ReadSharedReq_avg_mshr_miss_latency::cpu00.data 110728.716418                       # average ReadSharedReq mshr miss latency
system.l3.ReadSharedReq_avg_mshr_miss_latency::total 111153.991353                       # average ReadSharedReq mshr miss latency
system.l3.demand_avg_mshr_miss_latency::cpu00.inst 111238.353812                       # average overall mshr miss latency
system.l3.demand_avg_mshr_miss_latency::cpu00.data 83413.970472                       # average overall mshr miss latency
system.l3.demand_avg_mshr_miss_latency::total 83862.654428                       # average overall mshr miss latency
system.l3.overall_avg_mshr_miss_latency::cpu00.inst 111238.353812                       # average overall mshr miss latency
system.l3.overall_avg_mshr_miss_latency::cpu00.data 83413.970472                       # average overall mshr miss latency
system.l3.overall_avg_mshr_miss_latency::total 83862.654428                       # average overall mshr miss latency
system.membus.snoop_filter.tot_requests         83780                       # Total number of requests made to the snoop filter.
system.membus.snoop_filter.hit_single_requests            0                       # Number of requests hitting in the snoop filter with a single holder of the requested data.
system.membus.snoop_filter.hit_multi_requests            0                       # Number of requests hitting in the snoop filter with multiple (>1) holders of the requested data.
system.membus.snoop_filter.tot_snoops               0                       # Total number of snoops made to the snoop filter.
system.membus.snoop_filter.hit_single_snoops            0                       # Number of snoops hitting in the snoop filter with a single holder of the requested data.
system.membus.snoop_filter.hit_multi_snoops            0                       # Number of snoops hitting in the snoop filter with multiple (>1) holders of the requested data.
system.membus.pwrStateResidencyTicks::UNDEFINED 360141037794                       # Cumulative time (in ticks) in various power states
system.membus.trans_dist::ReadResp               1619                       # Transaction distribution
system.membus.trans_dist::ReadExReq             82161                       # Transaction distribution
system.membus.trans_dist::ReadExResp            82161                       # Transaction distribution
system.membus.trans_dist::ReadSharedReq          1619                       # Transaction distribution
system.membus.pkt_count_system.l3.mem_side::system.mem_ctrls.port       167560                       # Packet count per connected master and slave (bytes)
system.membus.pkt_count_system.l3.mem_side::total       167560                       # Packet count per connected master and slave (bytes)
system.membus.pkt_count::total                 167560                       # Packet count per connected master and slave (bytes)
system.membus.pkt_size_system.l3.mem_side::system.mem_ctrls.port      5361920                       # Cumulative packet size per connected master and slave (bytes)
system.membus.pkt_size_system.l3.mem_side::total      5361920                       # Cumulative packet size per connected master and slave (bytes)
system.membus.pkt_size::total                 5361920                       # Cumulative packet size per connected master and slave (bytes)
system.membus.snoops                                0                       # Total snoops (count)
system.membus.snoopTraffic                          0                       # Total snoop traffic (bytes)
system.membus.snoop_fanout::samples             83780                       # Request fanout histogram
system.membus.snoop_fanout::mean                    0                       # Request fanout histogram
system.membus.snoop_fanout::stdev                   0                       # Request fanout histogram
system.membus.snoop_fanout::underflows              0      0.00%      0.00% # Request fanout histogram
system.membus.snoop_fanout::0                   83780    100.00%    100.00% # Request fanout histogram
system.membus.snoop_fanout::1                       0      0.00%    100.00% # Request fanout histogram
system.membus.snoop_fanout::overflows               0      0.00%    100.00% # Request fanout histogram
system.membus.snoop_fanout::min_value               0                       # Request fanout histogram
system.membus.snoop_fanout::max_value               0                       # Request fanout histogram
system.membus.snoop_fanout::total               83780                       # Request fanout histogram
system.membus.reqLayer32.occupancy          122447715                       # Layer occupancy (ticks)
system.membus.reqLayer32.utilization              0.0                       # Layer utilization (%)
system.membus.respLayer1.occupancy          441400260                       # Layer occupancy (ticks)
system.membus.respLayer1.utilization              0.1                       # Layer utilization (%)
system.tol3bus.snoop_filter.tot_requests     10263041                       # Total number of requests made to the snoop filter.
system.tol3bus.snoop_filter.hit_single_requests      5129489                       # Number of requests hitting in the snoop filter with a single holder of the requested data.
system.tol3bus.snoop_filter.hit_multi_requests            0                       # Number of requests hitting in the snoop filter with multiple (>1) holders of the requested data.
system.tol3bus.snoop_filter.tot_snoops              0                       # Total number of snoops made to the snoop filter.
system.tol3bus.snoop_filter.hit_single_snoops            0                       # Number of snoops hitting in the snoop filter with a single holder of the requested data.
system.tol3bus.snoop_filter.hit_multi_snoops            0                       # Number of snoops hitting in the snoop filter with multiple (>1) holders of the requested data.
system.tol3bus.pwrStateResidencyTicks::UNDEFINED 360141037794                       # Cumulative time (in ticks) in various power states
system.tol3bus.trans_dist::ReadResp           5051158                       # Transaction distribution
system.tol3bus.trans_dist::WritebackDirty      5119001                       # Transaction distribution
system.tol3bus.trans_dist::CleanEvict           10486                       # Transaction distribution
system.tol3bus.trans_dist::ReadExReq            82396                       # Transaction distribution
system.tol3bus.trans_dist::ReadExResp           82396                       # Transaction distribution
system.tol3bus.trans_dist::ReadSharedReq      5051158                       # Transaction distribution
system.tol3bus.pkt_count_system.cpu00.l2.mem_side::system.l3.cpu_side     15396595                       # Packet count per connected master and slave (bytes)
system.tol3bus.pkt_count::total              15396595                       # Packet count per connected master and slave (bytes)
system.tol3bus.pkt_size_system.cpu00.l2.mem_side::system.l3.cpu_side    656163520                       # Cumulative packet size per connected master and slave (bytes)
system.tol3bus.pkt_size::total              656163520                       # Cumulative packet size per connected master and slave (bytes)
system.tol3bus.snoops                               0                       # Total snoops (count)
system.tol3bus.snoopTraffic                         0                       # Total snoop traffic (bytes)
system.tol3bus.snoop_fanout::samples          5133554                       # Request fanout histogram
system.tol3bus.snoop_fanout::mean                   0                       # Request fanout histogram
system.tol3bus.snoop_fanout::stdev                  0                       # Request fanout histogram
system.tol3bus.snoop_fanout::underflows             0      0.00%      0.00% # Request fanout histogram
system.tol3bus.snoop_fanout::0                5133554    100.00%    100.00% # Request fanout histogram
system.tol3bus.snoop_fanout::1                      0      0.00%    100.00% # Request fanout histogram
system.tol3bus.snoop_fanout::2                      0      0.00%    100.00% # Request fanout histogram
system.tol3bus.snoop_fanout::3                      0      0.00%    100.00% # Request fanout histogram
system.tol3bus.snoop_fanout::4                      0      0.00%    100.00% # Request fanout histogram
system.tol3bus.snoop_fanout::5                      0      0.00%    100.00% # Request fanout histogram
system.tol3bus.snoop_fanout::6                      0      0.00%    100.00% # Request fanout histogram
system.tol3bus.snoop_fanout::7                      0      0.00%    100.00% # Request fanout histogram
system.tol3bus.snoop_fanout::8                      0      0.00%    100.00% # Request fanout histogram
system.tol3bus.snoop_fanout::9                      0      0.00%    100.00% # Request fanout histogram
system.tol3bus.snoop_fanout::10                     0      0.00%    100.00% # Request fanout histogram
system.tol3bus.snoop_fanout::11                     0      0.00%    100.00% # Request fanout histogram
system.tol3bus.snoop_fanout::12                     0      0.00%    100.00% # Request fanout histogram
system.tol3bus.snoop_fanout::13                     0      0.00%    100.00% # Request fanout histogram
system.tol3bus.snoop_fanout::14                     0      0.00%    100.00% # Request fanout histogram
system.tol3bus.snoop_fanout::15                     0      0.00%    100.00% # Request fanout histogram
system.tol3bus.snoop_fanout::16                     0      0.00%    100.00% # Request fanout histogram
system.tol3bus.snoop_fanout::overflows              0      0.00%    100.00% # Request fanout histogram
system.tol3bus.snoop_fanout::min_value              0                       # Request fanout histogram
system.tol3bus.snoop_fanout::max_value              0                       # Request fanout histogram
system.tol3bus.snoop_fanout::total            5133554                       # Request fanout histogram
system.tol3bus.reqLayer0.occupancy         5122219986                       # Layer occupancy (ticks)
system.tol3bus.reqLayer0.utilization              1.4                       # Layer utilization (%)
system.tol3bus.respLayer0.occupancy        3418946964                       # Layer occupancy (ticks)
system.tol3bus.respLayer0.utilization             0.9                       # Layer utilization (%)

---------- End Simulation Statistics   ----------
